22
"	-17.879897722751807"
  C       -2.86579       -0.49534        0.80682
  C       -3.85870       -0.43099       -0.10350
  C       -4.03270       -1.41098       -1.00923
  C       -3.21129       -2.47559       -1.00347
  C       -2.22275       -2.55546       -0.09253
  C       -2.02831       -1.56920        0.82072
  O       -2.75412        0.56050        1.69372
  C       -0.92435       -1.75407        1.84958
  C        0.45546       -1.32479        1.34744
  C        0.62395        0.16696        1.37093
  O       -0.07480        0.97036        1.96821
  O        1.69790        0.57178        0.66787
  H       -4.52376        0.42819       -0.10548
  H       -4.83497       -1.34178       -1.73802
  H       -3.35051       -3.27303       -1.72793
  H       -1.58040       -3.43299       -0.09932
  H       -1.84568        0.68268        2.03301
  H       -0.87424       -2.81850        2.11956
  H       -1.17801       -1.24676        2.78867
  H        1.22494       -1.74723        2.00329
  H        0.62828       -1.69067        0.32920
  H        1.70123        1.54812        0.75659
22
"	-17.879667225027173"
  C       -0.14880       -1.68674        4.28103
  C        0.39435       -2.30355        5.35028
  C        0.84379       -3.56906        5.26552
  C        0.74481       -4.23346        4.10072
  C        0.19461       -3.63114        3.02927
  C       -0.25539       -2.35143        3.09696
  O       -0.57564       -0.38278        4.45711
  C       -0.91370       -1.75834        1.86143
  C        0.08258       -1.16032        0.86639
  C        0.57094        0.19032        1.30373
  O        0.06019        0.91291        2.14488
  O        1.66572        0.58265        0.62666
  H        0.47225       -1.76685        6.29192
  H        1.28069       -4.05039        6.13549
  H        1.10122       -5.25723        4.02761
  H        0.11254       -4.19465        2.10279
  H       -0.58473        0.13590        3.62888
  H       -1.47228       -2.55414        1.34849
  H       -1.67996       -1.02505        2.14277
  H       -0.40993       -1.02772       -0.10358
  H        0.94073       -1.82766        0.73012
  H        1.88766        1.46220        0.99815
22
"	-16.59397632808185"
  C       -0.32984       -4.13762        2.78260
  C       -0.53404       -5.47023        2.69503
  C       -1.37705       -5.97443        1.77327
  C       -2.02342       -5.14585        0.93288
  C       -1.82477       -3.81619        1.01443
  C       -0.97351       -3.29672        1.93287
  O        0.53762       -3.62582        3.73184
  C       -0.78321       -1.79350        2.01433
  C        0.48130       -1.33628        1.28959
  C        0.63206        0.15642        1.36035
  O       -0.16134        0.96555        1.80930
  O        1.79877        0.57128        0.82674
  H       -0.02278       -6.15302        3.36624
  H       -1.53741       -7.04694        1.70897
  H       -2.70693       -5.54838        0.19039
  H       -2.35884       -3.16231        0.32923
  H        0.91852       -4.32024        4.29361
  H       -1.65778       -1.28175        1.58913
  H       -0.75733       -1.47312        3.06477
  H        1.36734       -1.79141        1.74619
  H        0.43888       -1.62390        0.23290
  H        1.77227        1.54555        0.92924
22
"	-16.593488090534798"
  C       -1.46039       -3.91434        0.77178
  C       -1.62322       -5.25532        0.78417
  C       -1.37932       -5.96411        1.90344
  C       -0.97115       -5.33338        3.01959
  C       -0.80620       -3.99666        3.01455
  C       -1.04203       -3.27270        1.89287
  O       -1.71310       -3.19143       -0.38099
  C       -0.86698       -1.76590        1.92013
  C        0.47298       -1.33489        1.32714
  C        0.62438        0.15874        1.36794
  O       -0.11375        0.96872        1.90170
  O        1.74162        0.56914        0.73397
  H       -1.95361       -5.78028       -0.10639
  H       -1.51376       -7.04205        1.90641
  H       -0.77653       -5.90132        3.92523
  H       -0.47922       -3.50460        3.92733
  H       -2.02740       -3.75473       -1.10679
  H       -1.69452       -1.28149        1.38430
  H       -0.95046       -1.39687        2.95194
  H        1.29972       -1.77688        1.89462
  H        0.54819       -1.65623        0.28233
  H        1.72481        1.54403        0.83204
22
"	-16.506588541426357"
  C       -2.11914       -2.31657       -0.42135
  C       -3.03113       -2.05797       -1.38384
  C       -3.81901       -0.96827       -1.30536
  C       -3.70034       -0.13049       -0.25935
  C       -2.79370       -0.38243        0.70422
  C       -1.98847       -1.47074        0.63283
  O       -1.31260       -3.43813       -0.50846
  C       -0.98529       -1.73984        1.74176
  C        0.44000       -1.32476        1.37829
  C        0.61508        0.16828        1.38551
  O       -0.00607        0.98431        2.04573
  O        1.62810        0.56660        0.59009
  H       -3.14283       -2.72380       -2.23360
  H       -4.54995       -0.76622       -2.08291
  H       -4.33444        0.74913       -0.19017
  H       -2.71210        0.30645        1.54282
  H       -1.50398       -3.96718       -1.29990
  H       -0.99377       -2.81131        1.98191
  H       -1.30095       -1.24210        2.66822
  H        1.14152       -1.73657        2.11230
  H        0.71463       -1.71501        0.39183
  H        1.64035        1.54080        0.69335
22
"	-16.50573257046343"
  C        0.62965       -3.76665        2.32925
  C        1.43381       -4.42079        3.19545
  C        1.68000       -3.91246        4.41820
  C        1.11888       -2.74557        4.78346
  C        0.31569       -2.08828        3.92526
  C        0.06776       -2.58363        2.68788
  O        0.38062       -4.29553        1.07460
  C       -0.85426       -1.82730        1.74649
  C       -0.10487       -1.01686        0.68946
  C        0.55428        0.20357        1.27002
  O        0.20185        0.84169        2.24794
  O        1.61253        0.60807        0.53888
  H        1.89258       -5.36476        2.91942
  H        2.32832       -4.44373        5.10888
  H        1.31203       -2.33223        5.76948
  H       -0.12919       -1.14548        4.23764
  H        0.82312       -5.14981        0.94216
  H       -1.52717       -1.17425        2.31803
  H       -1.51758       -2.54227        1.24192
  H       -0.80819       -0.67173       -0.07659
  H        0.65301       -1.63610        0.19708
  H        1.93558        1.40325        1.01134
22
"	-15.665466655520472"
  C        1.95346       -2.93085        1.78919
  C        2.66316       -3.65895        2.67473
  C        2.05167       -4.32076        3.67419
  C        0.71345       -4.26089        3.79097
  C       -0.00598       -3.54137        2.90865
  C        0.59771       -2.86101        1.90029
  O        2.66263       -2.27616        0.79763
  C       -0.28128       -2.10555        0.91708
  C       -0.67748       -0.70738        1.39167
  C        0.45385        0.27968        1.45734
  O        0.54471        1.20449        2.24799
  O        1.36972        0.13793        0.47871
  H        3.74433       -3.70872        2.57999
  H        2.63744       -4.90169        4.38064
  H        0.21424       -4.79745        4.59298
  H       -1.08770       -3.51756        3.01901
  H        2.14134       -1.58145        0.35637
  H       -1.20283       -2.68310        0.75605
  H        0.18300       -2.06582       -0.07560
  H       -1.42816       -0.29181        0.70989
  H       -1.13095       -0.76578        2.38813
  H        1.98666        0.88525        0.64972
22
"	-15.66409146477281"
  C       -2.31656       -0.10056       -0.57266
  C       -3.53865        0.43733       -0.76089
  C       -4.59033        0.04267       -0.01995
  C       -4.42390       -0.90447        0.91969
  C       -3.20918       -1.45266        1.11274
  C       -2.13688       -1.05896        0.37836
  O       -1.29050        0.36753       -1.37422
  C       -0.80770       -1.75475        0.62041
  C        0.00043       -1.15785        1.77252
  C        0.54755        0.21715        1.51079
  O        0.72768        1.08301        2.35114
  O        0.94157        0.42160        0.23793
  H       -3.67371        1.20138       -1.52119
  H       -5.56818        0.48630       -0.18313
  H       -5.27033       -1.23047        1.51762
  H       -3.10320       -2.22430        1.87174
  H       -0.40812        0.12511       -1.03998
  H       -1.00276       -2.81107        0.85457
  H       -0.21237       -1.79320       -0.29954
  H        0.85591       -1.80747        1.99035
  H       -0.61726       -1.10868        2.67690
  H        1.31804        1.33024        0.27011
22
"	-15.62838487956019"
  C       -1.32780       -3.77269       -0.02573
  C       -1.66488       -5.08083       -0.01541
  C       -2.16081       -5.65095        1.09978
  C       -2.32380       -4.91314        2.21310
  C       -1.98868       -3.60849        2.21049
  C       -1.48191       -3.02497        1.09672
  O       -0.82046       -3.19135       -1.17444
  C       -1.12906       -1.55049        1.11461
  C        0.36051       -1.32073        1.33574
  C        0.63645        0.14974        1.41018
  O        0.47657        0.86252        2.38733
  O        1.06506        0.66812        0.24494
  H       -1.54180       -5.69004       -0.90517
  H       -2.43143       -6.70298        1.10054
  H       -2.72704       -5.36870        3.11329
  H       -2.12958       -3.02839        3.11940
  H       -0.77674       -3.81684       -1.91565
  H       -1.45164       -1.07296        0.17945
  H       -1.70262       -1.03587        1.89772
  H        0.70521       -1.77582        2.27190
  H        0.96428       -1.76220        0.53458
  H        1.17935        1.62251        0.43483
22
"	-15.605452254887101"
  C       -1.21111       -3.84352        0.03509
  C       -2.12687       -4.76802       -0.32777
  C       -3.26351       -4.91957        0.37890
  C       -3.49024       -4.14597        1.45608
  C       -2.58211       -3.22158        1.82348
  C       -1.43737       -3.05449        1.11664
  O       -0.04451       -3.69443       -0.69405
  C       -0.42348       -2.01933        1.56410
  C       -0.51986       -0.73164        0.75580
  C        0.45341        0.27297        1.29196
  O        0.26354        1.02835        2.23095
  O        1.63592        0.25882        0.64999
  H       -1.95940       -5.40263       -1.19228
  H       -3.99460       -5.66616        0.08210
  H       -4.40420       -4.26761        2.03077
  H       -2.78199       -2.60774        2.69851
  H        0.00930       -4.32105       -1.43385
  H       -0.56066       -1.79555        2.63121
  H        0.59183       -2.43368        1.49855
  H       -0.31592       -0.89854       -0.30808
  H       -1.52314       -0.29334        0.81534
  H        2.16766        0.93954        1.11249
22
"	-15.575015698563764"
  C       -1.97133       -3.61248        2.03300
  C       -2.29310       -4.92446        2.03483
  C       -2.06178       -5.68699        0.94878
  C       -1.50630       -5.13986       -0.14795
  C       -1.18292       -3.83235       -0.15684
  C       -1.40512       -3.05578        0.93197
  O       -2.21159       -2.83333        3.15096
  C       -1.05078       -1.58213        0.88843
  C        0.30502       -1.30101        1.52526
  C        0.61544        0.16396        1.46262
  O        0.59198        0.95223        2.39249
  O        0.94786        0.57611        0.22398
  H       -2.74362       -5.38149        2.91010
  H       -2.32504       -6.74088        0.95617
  H       -1.32082       -5.75146       -1.02670
  H       -0.73821       -3.40693       -1.05329
  H       -2.61941       -3.33903        3.87261
  H       -1.05526       -1.22801       -0.15157
  H       -1.83238       -0.98953        1.38297
  H        0.31944       -1.60328        2.57892
  H        1.11169       -1.85194        1.02717
  H        1.12449        1.53400        0.33518
22
"	-15.57491182717137"
  C       -2.48946       -3.26707        1.70201
  C       -3.40749       -4.18020        1.31687
  C       -3.21620       -4.91585        0.20475
  C       -2.10132       -4.74364       -0.52863
  C       -1.18148       -3.83533       -0.15030
  C       -1.36600       -3.08318        0.96249
  O       -2.69123       -2.51357        2.84476
  C       -0.30505       -2.08150        1.37582
  C       -0.63687       -0.66930        0.90821
  C        0.43284        0.28637        1.34276
  O        0.34659        1.11840        2.23002
  O        1.57201        0.15519        0.63599
  H       -4.31112       -4.33456        1.89790
  H       -3.95851       -5.64857       -0.09880
  H       -1.94193       -5.33753       -1.42445
  H       -0.28534       -3.71233       -0.75384
  H       -3.52389       -2.73688        3.29159
  H        0.67186       -2.38680        0.97654
  H       -0.17194       -2.09736        2.46587
  H       -0.73570       -0.61283       -0.18215
  H       -1.58823       -0.32418        1.32963
  H        2.16622        0.83295        1.02171
22
"	-15.50497705065942"
  C       -2.67806       -3.12601        1.28749
  C       -3.43931       -4.12579        0.79154
  C       -2.88464       -5.10616        0.05270
  C       -1.56173       -5.09260       -0.19275
  C       -0.79667       -4.09895        0.29895
  C       -1.34393       -3.10272        1.03763
  O       -3.25316       -2.12152        2.04536
  C       -0.45602       -2.00639        1.59459
  C       -0.48886       -0.75135        0.73222
  C        0.45816        0.26884        1.28711
  O        0.25302        1.01290        2.23108
  O        1.64323        0.28516        0.64779
  H       -4.50779       -4.15358        0.98117
  H       -3.50270       -5.90722       -0.34294
  H       -1.11020       -5.88328       -0.78570
  H        0.27071       -4.10669        0.09200
  H       -4.20635       -2.25511        2.17316
  H       -0.75092       -1.76718        2.62543
  H        0.57787       -2.36818        1.68157
  H       -0.21329       -0.97176       -0.30616
  H       -1.48792       -0.30222        0.70061
  H        2.15190        0.98185        1.11345
22
"	-15.504696443956089"
  C       -2.42047       -3.25081        1.94094
  C       -2.87704       -4.50200        2.16623
  C       -2.39055       -5.54417        1.46507
  C       -1.44334       -5.33982        0.53151
  C       -0.98259       -4.09510        0.30210
  C       -1.45949       -3.03905        1.00566
  O       -2.92233       -2.18342        2.66465
  C       -0.93672       -1.64481        0.71796
  C        0.18088       -1.24896        1.67874
  C        0.58116        0.18510        1.49478
  O        0.67991        1.02299        2.37614
  O        0.90430        0.49484        0.22517
  H       -3.64156       -4.68521        2.91458
  H       -2.76228       -6.54771        1.65095
  H       -1.05100       -6.17786       -0.03793
  H       -0.21795       -3.94926       -0.45712
  H       -3.60251       -2.45693        3.30136
  H       -0.57601       -1.58986       -0.31811
  H       -1.75552       -0.91426        0.76394
  H       -0.14701       -1.36889        2.71824
  H        1.06916       -1.87579        1.54076
  H        1.16566        1.43856        0.27473
22
"	-15.410741653519267"
  C       -0.52720       -3.02367        3.43510
  C       -0.00251       -3.50678        4.58243
  C        1.33062       -3.63813        4.72338
  C        2.14806       -3.28902        3.71331
  C        1.63196       -2.80691        2.56646
  C        0.29250       -2.66056        2.41545
  O       -1.89811       -2.89332        3.29580
  C       -0.26325       -2.12611        1.10701
  C       -0.69919       -0.66364        1.17992
  C        0.44034        0.28620        1.41498
  O        0.46595        1.19092        2.23366
  O        1.46568        0.12179        0.55723
  H       -0.64697       -3.79629        5.40634
  H        1.74533       -4.02676        5.64919
  H        3.22366       -3.39652        3.82259
  H        2.30849       -2.53198        1.76057
  H       -2.37606       -3.17001        4.09450
  H        0.47159       -2.25986        0.30208
  H       -1.12295       -2.73849        0.80340
  H       -1.18521       -0.36991        0.24247
  H       -1.43251       -0.51805        1.98111
  H        2.09362        0.82879        0.81648
22
"	-15.410518813848203"
  C       -3.11639       -1.27079        1.84604
  C       -4.29323       -0.61469        1.94367
  C       -4.61718        0.34548        1.05640
  C       -3.76393        0.65445        0.06312
  C       -2.58865        0.00488       -0.04000
  C       -2.24703       -0.95815        0.85107
  O       -2.79155       -2.25893        2.75902
  C       -0.92168       -1.68461        0.70120
  C        0.14322       -1.22799        1.69700
  C        0.57345        0.19700        1.49695
  O        0.69497        1.04076        2.37033
  O        0.91957        0.48399        0.22732
  H       -4.99483       -0.85250        2.73690
  H       -5.56573        0.86812        1.14089
  H       -4.02319        1.42645       -0.65589
  H       -1.91313        0.26744       -0.85090
  H       -3.48429       -2.38163        3.42839
  H       -0.54621       -1.57691       -0.32504
  H       -1.08656       -2.76322        0.82561
  H        1.03528       -1.85816        1.60666
  H       -0.22035       -1.33115        2.72559
  H        1.20446        1.42083        0.27615
22
"	-15.106980021125196"
  C       -0.58663       -4.08235        2.84241
  C       -0.78311       -5.41352        2.75360
  C       -1.45300       -5.94668        1.71529
  C       -1.93597       -5.14318        0.75121
  C       -1.74405       -3.81251        0.82794
  C       -1.06321       -3.26163        1.86523
  O        0.11032       -3.62025        3.94467
  C       -0.88779       -1.75476        1.89052
  C        0.47404       -1.33348        1.33914
  C        0.62532        0.16059        1.37052
  O       -0.10119        0.96463        1.92814
  O        1.72165        0.57144        0.70466
  H       -0.39617       -6.06336        3.53370
  H       -1.60383       -7.02072        1.65859
  H       -2.47997       -5.56763       -0.08802
  H       -2.14454       -3.18416        0.03555
  H        0.15270       -2.65404        3.99626
  H       -1.68259       -1.27197        1.30444
  H       -1.03302       -1.37046        2.90812
  H        1.28566       -1.76913        1.93226
  H        0.57442       -1.66886        0.30024
  H        1.71643        1.54678        0.80337
22
"	-15.105810314726703"
  C       -1.53981       -3.92217        0.90235
  C       -1.67306       -5.26411        0.90420
  C       -1.24068       -6.00148        1.94373
  C       -0.66864       -5.39404        2.99825
  C       -0.52740       -4.05457        3.00642
  C       -0.95078       -3.29915        1.96084
  O       -2.01499       -3.24258       -0.20542
  C       -0.76519       -1.79515        2.03688
  C        0.48111       -1.33602        1.28002
  C        0.63389        0.15659        1.35576
  O       -0.17326        0.96021        1.78934
  O        1.81065        0.57091        0.84830
  H       -2.13889       -5.75511        0.05431
  H       -1.35698       -7.08136        1.93032
  H       -0.32139       -5.98366        3.84221
  H       -0.06141       -3.58775        3.87128
  H       -1.96947       -2.27925       -0.11563
  H       -1.66043       -1.28208        1.66314
  H       -0.69030       -1.47545        3.08578
  H        1.37359       -1.79753        1.71848
  H        0.41925       -1.61698        0.22291
  H        1.78763        1.54647        0.94258
22
"	-14.996018153279966"
  C       -0.87553       -4.20374        1.42912
  C       -1.66040       -5.26867        1.70287
  C       -2.98402       -5.22463        1.45671
  C       -3.53052       -4.11271        0.93219
  C       -2.75439       -3.04664        0.65772
  C       -1.42229       -3.07537        0.90812
  O        0.48410       -4.25636        1.68241
  C       -0.56733       -1.86650        0.57349
  C       -0.28820       -1.00474        1.80468
  C        0.51095        0.23617        1.51620
  O        0.71611        1.13713        2.31568
  O        1.03798        0.30710        0.28275
  H       -1.23552       -6.17440        2.12380
  H       -3.60937       -6.08476        1.67834
  H       -4.59690       -4.07543        0.72816
  H       -3.21420       -2.15836        0.23166
  H        0.76023       -5.12003        2.02972
  H       -1.06156       -1.25960       -0.19791
  H        0.37440       -2.19402        0.11309
  H       -1.23848       -0.68118        2.24568
  H        0.26513       -1.58023        2.55513
  H        1.53313        1.15314        0.28641
22
"	-14.79524103668684"
  C        0.27468       -2.74886       -1.23984
  C       -0.01864       -3.45163       -2.35264
  C       -1.10054       -4.25026       -2.40218
  C       -1.90133       -4.35317       -1.32688
  C       -1.61702       -3.65867       -0.20847
  C       -0.53139       -2.84568       -0.14605
  O        1.40286       -1.94934       -1.27947
  C       -0.24609       -2.11477        1.15420
  C       -0.70199       -0.65488        1.12424
  C        0.43086        0.29051        1.40111
  O        0.44151        1.18022        2.23389
  O        1.48524        0.10809        0.57936
  H        0.62852       -3.36903       -3.22135
  H       -1.32303       -4.80938       -3.30635
  H       -2.77414       -4.99931       -1.36044
  H       -2.27816       -3.76446        0.64847
  H        1.47027       -1.33117       -0.52874
  H       -0.76738       -2.62080        1.97910
  H        0.81649       -2.21857        1.40943
  H       -1.45602       -0.49804        1.90514
  H       -1.16016       -0.36500        0.17204
  H        2.10804        0.82161        0.84501
